 fluidloop.f90, version 1.0
     available on GitHub: http://github.com/fabien-roquet/loop
     F. Roquet 2016
     GNU General Public License
 
 
 Namelist parameters:
&NAMRUN
 NAME_EXP="TEST                                              ",
 NL=        360,
 NITER_T1=      10000,
 NITER_MAX=     100000,
 NITER_WRITE_0D=      10000,
 NITER_WRITE_1D=      10000,
 INIT_FROM_FILE=T,
 INIT_STATE="init_state.txt                                    ",
 /
&NAMCONFIG
 ZF= 0.50000000000000000     ,
 R= 0.10000000000000001     ,
 LAMBDA=  0.0000000000000000     ,
 MU=  0.0000000000000000     ,
 FOLDTRUE=T,
 /
&NAMFORCING
 TAU=  0.0000000000000000     ,
 REF_T=  5.0000000000000000     ,
 XI_T=  1.0000000000000000     ,
 F_S= 0.14999999999999999     ,
 /
 
 Loop index of sink  : jsink  =          59
 Loop index of source: jsource=         301
 Actual height of source/sink: z(jsink)=  0.51503805034771533     
 w_n init =  -6.4413799999999993E-002
 Diffusion scheme stable
 Stability factor is  0.13131224337505093      (must be less than 1, should be less than 0.5)
 Temperature relaxation stable
 Stability factor is   3.5999999090563506E-002 (must be less than 0.90)
 Initialization complete
 
 last velocity  -6.4414549207701205E-002 at time=   10.000099747376225     
